Version 4
SHEET 1 880 680
WIRE -32 -160 -32 -192
WIRE -32 -160 -112 -160
WIRE 416 -48 -176 -48
WIRE -32 16 -32 -80
WIRE -32 16 -96 16
WIRE 64 16 -32 16
WIRE -96 96 -96 80
WIRE -96 96 -256 96
WIRE -32 96 -96 96
WIRE -176 112 -176 -48
WIRE 272 112 240 112
WIRE 304 112 272 112
WIRE 64 128 64 16
WIRE 160 128 64 128
WIRE 400 144 240 144
WIRE 272 176 272 112
WIRE 272 176 240 176
WIRE 288 176 272 176
WIRE 480 176 368 176
WIRE 112 192 96 192
WIRE 160 192 112 192
WIRE 480 192 480 176
WIRE 256 208 240 208
WIRE 288 208 256 208
WIRE 400 208 400 144
WIRE 400 208 368 208
WIRE 16 224 16 192
WIRE 16 224 -80 224
WIRE 160 224 96 224
WIRE -176 240 -176 192
WIRE -128 240 -176 240
WIRE -80 240 -80 224
WIRE -80 240 -128 240
WIRE 416 240 416 -48
WIRE 416 240 240 240
WIRE -128 256 -128 240
WIRE 16 288 -32 288
WIRE 112 288 112 192
WIRE 112 288 96 288
WIRE -176 304 -176 240
WIRE -32 304 -32 288
WIRE 256 304 256 208
WIRE 272 304 256 304
WIRE -80 400 -80 240
WIRE -32 400 -32 384
WIRE -32 400 -80 400
WIRE -256 464 -256 96
WIRE -176 464 -176 384
WIRE -176 464 -256 464
WIRE 400 464 400 208
WIRE 400 464 -176 464
FLAG -128 256 0
FLAG 480 192 0
FLAG -112 -80 0
FLAG 272 304 out
IOPIN 272 304 Out
FLAG -32 -192 mod
IOPIN -32 -192 In
FLAG -32 288 in
IOPIN -32 288 In
FLAG 304 112 mid
IOPIN 304 112 Out
SYMBOL LM13700_NS 192 176 R0
SYMATTR InstName U1
SYMBOL voltage -176 96 R0
WINDOW 123 0 0 Left 2
WINDOW 39 0 0 Left 2
SYMATTR InstName V1
SYMATTR Value 5
SYMBOL voltage -176 288 R0
WINDOW 123 0 0 Left 2
WINDOW 39 0 0 Left 2
SYMATTR InstName V2
SYMATTR Value 5
SYMBOL res 112 176 R90
WINDOW 0 0 56 VBottom 2
WINDOW 3 32 56 VTop 2
SYMATTR InstName R1
SYMATTR Value 470
SYMBOL res 112 208 R90
WINDOW 0 0 56 VBottom 2
WINDOW 3 32 56 VTop 2
SYMATTR InstName R2
SYMATTR Value 470
SYMBOL res 384 160 R90
WINDOW 0 0 56 VBottom 2
WINDOW 3 32 56 VTop 2
SYMATTR InstName R3
SYMATTR Value 22k
SYMBOL res 384 192 R90
WINDOW 0 0 56 VBottom 2
WINDOW 3 32 56 VTop 2
SYMATTR InstName R4
SYMATTR Value 4k7
SYMBOL Misc\\signal -32 288 R0
WINDOW 123 0 0 Left 2
WINDOW 39 0 0 Left 2
SYMATTR InstName V3
SYMATTR Value SINE(0 1 10000)
SYMBOL res 112 272 R90
WINDOW 0 0 56 VBottom 2
WINDOW 3 32 56 VTop 2
SYMATTR InstName R6
SYMATTR Value 10k
SYMBOL res -48 0 R0
SYMATTR InstName R7
SYMATTR Value 820
SYMBOL cap -112 16 R0
SYMATTR InstName C1
SYMATTR Value 470n
SYMBOL res -48 -176 R0
SYMATTR InstName R8
SYMATTR Value 4k7
SYMBOL Misc\\signal -112 -176 R0
WINDOW 123 0 0 Left 2
WINDOW 39 0 0 Left 2
SYMATTR InstName V4
SYMATTR Value PULSE(0 5 0.05 0.05 0.05 0 0.1)
TEXT -256 472 Left 2 !.tran 0.25
